Circuit: * C:\Users\evech\OneDrive\Bureau\formation FPGA AVRIL 2023\projets- TP-TD\LT-SPICE TP\latch-bascule\Flipflop-corrigé\flipflop.asc

WARNING: Less than two connections to node q.  This node is used by a2.
Direct Newton iteration for .op point succeeded.

Date: Tue May  2 12:47:15 2023
Total elapsed time: 0.039 seconds.

tnom = 27
temp = 27
method = modified trap
totiter = 5472
traniter = 5469
tranpoints = 2734
accept = 2395
rejected = 339
matrix size = 8
fillins = 0
solver = Normal
Avg thread counts: 1.2/1.3/1.4/1.2
Matrix Compiler1: 174 bytes object code size  0.1/0.1/[0.1]
Matrix Compiler2: 358 bytes object code size  0.2/0.2/[0.2]

