Circuit: * C:\Users\evech\OneDrive\Bureau\formation FPGA AVRIL 2023\Draft1.asc

Direct Newton iteration for .op point succeeded.

Date: Fri Apr 28 09:17:10 2023
Total elapsed time: 0.080 seconds.

tnom = 27
temp = 27
method = modified trap
totiter = 6601
traniter = 6579
tranpoints = 2911
accept = 2583
rejected = 328
matrix size = 8
fillins = 0
solver = Normal
Avg thread counts: 1.1/1.3/1.3/1.1
Matrix Compiler1:      17 opcodes  0.2/[0.2]/0.2
Matrix Compiler2: 642 bytes object code size  0.2/0.3/[0.2]

