Circuit: * C:\Users\evech\OneDrive\Bureau\formation FPGA AVRIL 2023\LT-SPICE TP\porte.asc

Direct Newton iteration for .op point succeeded.

Date: Fri Apr 28 10:45:53 2023
Total elapsed time: 0.075 seconds.

tnom = 27
temp = 27
method = modified trap
totiter = 5731
traniter = 5722
tranpoints = 2768
accept = 2477
rejected = 291
matrix size = 8
fillins = 0
solver = Normal
Avg thread counts: 1.2/1.3/1.4/1.2
Matrix Compiler1: 300 bytes object code size  0.2/0.2/[0.1]
Matrix Compiler2: 602 bytes object code size  0.2/0.3/[0.1]

