Circuit: * C:\Users\evech\OneDrive\Bureau\formation FPGA AVRIL 2023\projets- TP-TD\LT-SPICE TP\SUBTRACTOR\Draft1.asc

WARNING: Less than two connections to node qbar.  This node is used by a1.
WARNING: Less than two connections to node q.  This node is used by a1.
Direct Newton iteration for .op point succeeded.

Date: Tue May  2 10:33:26 2023
Total elapsed time: 0.040 seconds.

tnom = 27
temp = 27
method = modified trap
totiter = 2930
traniter = 2927
tranpoints = 1463
accept = 1381
rejected = 82
matrix size = 6
fillins = 0
solver = Normal
Avg thread counts: 1.3/1.7/1.7/1.3
Matrix Compiler1:       7 opcodes  0.1/[0.1]/0.2
Matrix Compiler2:      26 opcodes  0.1/[0.1]/0.1

