Circuit: * C:\Users\evech\OneDrive\Bureau\formation FPGA AVRIL 2023\projets- TP-TD\LT-SPICE TP\SUBTRACTOR\Draft2.asc

WARNING: Node N001 is floating.

WARNING: Less than two connections to node n001.  This node is used by a1.
WARNING: Less than two connections to node qbar.  This node is used by a1.
WARNING: Less than two connections to node q.  This node is used by a1.
WARNING: Less than two connections to node clr.  This node is used by v3.
Direct Newton iteration for .op point succeeded.

Date: Tue May  2 12:44:29 2023
Total elapsed time: 0.040 seconds.

tnom = 27
temp = 27
method = modified trap
totiter = 3766
traniter = 3763
tranpoints = 1880
accept = 1715
rejected = 165
matrix size = 9
fillins = 0
solver = Normal
Avg thread counts: 1.3/1.5/1.5/1.3
Matrix Compiler1: off  [0.1]/0.2/0.2
Matrix Compiler2: off  [0.1]/0.2/0.2

