Circuit: * C:\Users\evech\OneDrive\Bureau\formation FPGA AVRIL 2023\LT-SPICE TP\Draft3.asc

Direct Newton iteration for .op point succeeded.
Changing Tseed to 1e-09
Changing Tseed to 1e-11
Changing Tseed to 1e-08
Changing Tseed to 1e-12

Date: Fri Apr 28 11:01:35 2023
Total elapsed time: 0.083 seconds.

tnom = 27
temp = 27
method = modified trap
totiter = 7605
traniter = 7596
tranpoints = 2890
accept = 2567
rejected = 319
matrix size = 8
fillins = 0
solver = Normal
Avg thread counts: 1.1/1.3/1.3/1.1
Matrix Compiler1: off  [0.2]/0.2/0.3
Matrix Compiler2: off  [0.2]/0.4/0.3

