Circuit: * C:\Users\evech\OneDrive\Bureau\formation FPGA AVRIL 2023\test3.asc

Direct Newton iteration for .op point succeeded.

Date: Thu Apr 27 20:23:46 2023
Total elapsed time: 0.084 seconds.

tnom = 27
temp = 27
method = modified trap
totiter = 8758
traniter = 8746
tranpoints = 3118
accept = 2733
rejected = 385
matrix size = 8
fillins = 0
solver = Normal
Avg thread counts: 1.1/1.3/1.3/1.1
Matrix Compiler1:      17 opcodes  0.2/[0.2]/0.2
Matrix Compiler2: 602 bytes object code size  0.2/0.3/[0.2]

