Circuit: * C:\Users\evech\OneDrive\Bureau\formation FPGA AVRIL 2023\projets- TP-TD\LT-SPICE TP\SUBTRACTOR\susbtractor.asc

WARNING: Less than two connections to node d.  This node is used by a7.
WARNING: Less than two connections to node cout.  This node is used by a4.
Direct Newton iteration for .op point succeeded.

Date: Tue May  2 09:56:57 2023
Total elapsed time: 0.199 seconds.

tnom = 27
temp = 27
method = modified trap
totiter = 7500
traniter = 7496
tranpoints = 3719
accept = 3219
rejected = 500
matrix size = 13
fillins = 0
solver = Normal
Avg thread counts: 1.1/1.3/1.3/1.1
Matrix Compiler1: off  [0.1]/0.2/0.2
Matrix Compiler2: 553 bytes object code size  0.2/0.3/[0.2]

