Circuit: * C:\Users\evech\OneDrive\Bureau\formation FPGA AVRIL 2023\test2.asc

Direct Newton iteration for .op point succeeded.

Date: Thu Apr 27 20:12:04 2023
Total elapsed time: 0.073 seconds.

tnom = 27
temp = 27
method = modified trap
totiter = 3801
traniter = 3789
tranpoints = 1772
accept = 1615
rejected = 157
matrix size = 13
fillins = 1
solver = Normal
Avg thread counts: 1.3/1.5/1.5/1.3
Matrix Compiler1: 728 bytes object code size  0.2/0.2/[0.2]
Matrix Compiler2: 1.02 KB object code size  0.2/0.3/[0.2]

